192
 Step #          201
O      0.429328     0.260056    -0.882835
O      0.393480     2.163424     5.975722
O      2.160094     2.913090    -4.395794
O      0.608183    -2.027070     4.019803
O      0.876004    -5.111212     0.235035
O      1.240148     6.041848    -5.695731
O     -2.252364     4.192527     1.946709
O     -1.646993     1.688023     1.472558
O     -2.080205     0.439669     3.839787
O     -1.955073     3.234685     4.945659
O     -1.384386    -2.873786     1.917806
O     -1.496040    -5.833134     1.135897
O     -1.354410    -3.819958    -4.165031
O     -0.630446     3.421292    -1.391525
O     -0.317648     5.458304     4.583951
O     -0.974098     0.367699    -4.779454
O     -0.095808     5.999069    -2.897145
O     -0.319499    -2.036109    -5.812172
O      1.438969     0.667409    -3.306772
O      0.758539     3.091042     1.910626
O      1.885194    -2.708942    -0.282156
O      1.304562     1.037379     3.678210
O      2.192389     4.963303     3.463434
O      2.395079     3.462758    -0.749962
O      2.214824    -3.085616    -4.639237
O      2.460935     0.142497     0.895442
O      2.678092     5.435040    -2.971104
O      3.074320    -1.804702     3.034733
O      2.924546    -1.557576    -2.667871
O      3.209468     6.135645     1.337639
O      4.638015     2.876217    -4.241879
O      3.670075    -6.107661    -6.023189
O      4.632443     4.087794     0.545848
O      4.184705    -3.497170     6.080451
O      4.586125    -4.202512    -3.125371
O      4.404085     4.132231     4.254114
O      4.668317    -0.126173     4.495056
O      5.220063     0.244673     0.303667
O      5.792032     1.630887    -2.171117
O      4.854640    -4.248922     2.399006
O      5.361366     5.271574    -4.223308
O      5.515158     2.140733     5.739360
O      5.476542     5.829492    -1.390579
O      5.325014    -0.776297    -3.575715
O     -5.499952     3.767664     2.524597
O     -5.549730    -3.259254    -6.043554
O     -5.670190     1.103487     2.134856
O     -6.033852    -2.229528     1.007839
O     -6.042661    -5.467841     4.402047
O     -5.903670    -2.468897    -1.732694
O     -5.407286    -0.563546    -5.739059
O     -4.415342     5.614174     0.170943
O     -4.046535     1.411566    -1.940445
O     -4.432499     5.018033    -3.998056
O     -4.714453    -1.028730     3.943507
O     -4.337379     3.041004    -5.944456
O     -3.438858    -0.468973     0.185846
O     -3.813821    -4.762592    -4.667222
O     -3.228762     3.879499    -1.921521
O     -3.578635     0.952178    -4.482963
O     -3.445453    -4.086259     3.212229
O     -3.043994    -2.627133    -1.679808
O     -3.352269    -6.153221     5.271593
O     -2.127654    -5.083918    -1.251545
H     -0.120898    -2.226023     5.583824
H      0.533742     5.353223     4.007812
H      0.299633     3.662280    -1.038973
H      0.629704     0.530512    -1.859702
H      0.605992     5.744301     5.900546
H      1.077467     2.562064    -5.851355
H      0.662018    -5.868174    -5.049871
H      0.667519     0.342344    -3.765281
H      1.220634    -4.159406    -0.006545
H     -2.654007     0.593900    -4.652302
H     -2.483813    -2.011975    -2.198578
H     -1.775707     2.654287     1.681013
H     -2.286555    -4.149517    -4.352801
H     -1.834247     5.173225     1.778091
H     -1.823497    -5.411363    -0.332859
H     -2.216223     4.078385     2.888169
H      1.860471     2.067747    -4.006242
H     -2.488786     5.782170     5.163118
H     -2.210622    -3.133771     2.480446
H     -1.835797     0.833849     2.981509
H     -1.858455     2.440837     4.381251
H     -1.431535    -0.194805     4.111361
H     -1.787508    -5.074981     1.650660
H     -0.803741     4.540485     4.595302
H     -0.697633    -5.926609    -2.185243
H      1.207254    -2.014520    -0.153453
H     -1.715074    -2.096219     1.384364
H     -1.087110     3.472761    -0.506054
H     -0.978693    -4.492514    -3.628877
H      2.154604     3.763119    -3.764453
H      0.907953     1.456702     4.478024
H     -0.856097    -2.777312    -5.363449
H     -0.803818    -0.504981    -5.213384
H     -0.385867     2.757674     5.909475
H     -0.464455     1.032792    -5.389076
H     -0.566826    -5.530270     0.868259
H     -0.185444     5.117518    -2.419366
H     -0.188074     0.945109    -0.584366
H      0.126237    -2.523767     3.330791
H      0.955395     2.242998     2.358000
H      0.927997     0.139113     3.646831
H      1.775541     4.186366     2.859760
H      1.445482    -2.784869    -5.200410
H      1.600533    -2.208346     3.815667
H      1.713875     0.254256     0.263700
H      1.574720    -5.540052     0.736325
H      2.105850    -0.098951    -3.127405
H      2.092912     0.620016     1.689869
H      1.870592     5.973493    -2.709479
H      1.052755     3.000951     0.936116
H      2.269818    -2.490751    -1.242291
H      2.588759     4.050125    -1.491712
H      3.058103     4.704828     3.927797
H      3.256294     3.455312    -0.189764
H      2.933049    -3.385384    -5.255599
H      2.920603    -1.289305     2.199372
H      2.771650     5.744633     2.216018
H      2.671031     6.103498    -6.052659
H      3.631761     2.892544    -4.390649
H      3.356507     6.067615    -3.381091
H      2.659420    -1.907245    -3.590531
H      3.860211    -5.483100     1.498831
H      4.065770     4.840487     0.958572
H      3.527321    -2.586532     2.731037
H      3.906394    -3.532915    -3.115741
H      4.253725     0.334411     0.515132
H      3.849874    -1.239741    -2.826174
H      4.004716    -4.520394     6.007220
H      4.005275    -0.723551     4.032005
H      4.195860     5.577065     5.856191
H      4.903647     2.260456    -3.405638
H      4.976064     4.333807    -4.359124
H      5.096449     4.503681    -0.256025
H      3.883124    -3.061268     5.218605
H      5.173699     2.130742    -5.716927
H      4.740031     3.272656     4.788475
H      5.506141    -0.665301     4.438286
H      5.229770     4.504734     3.898082
H      4.877543     5.898059    -4.831439
H      5.449742     1.259156    -1.312292
H      4.948877    -5.735131    -1.509279
H      5.344116    -3.793253    -2.625872
H      5.364727     1.225271     5.463221
H     -6.128756     4.107017     1.813522
H      5.794761     0.722012     0.969860
H      5.634600    -4.537949     2.999193
H      5.765900    -3.344118    -6.090152
H      5.554769     5.565604    -2.345576
H      5.341955    -3.523831     1.865473
H      5.516562     0.137044    -3.328289
H      5.731032    -1.457705     0.939363
H     -5.590865     1.571163    -2.078064
H      5.789041    -0.892596    -4.490807
H     -6.165930    -1.786494    -2.402252
H     -5.528625     2.052094     2.435662
H     -4.594093     4.125811     2.297470
H     -5.781572    -4.799526     5.043579
H     -5.997504    -2.385230     0.017202
H     -5.260429     5.569780    -0.280018
H     -5.467694     5.023400    -3.983783
H     -5.550658    -2.280541    -5.769373
H     -4.977582    -0.553256     5.746483
H     -5.854725     0.490414     2.887196
H     -5.086885     2.637643     6.030912
H     -4.951707    -2.664050    -1.955797
H     -5.388980    -6.180308     4.410698
H     -4.633756    -2.052019     3.804945
H     -3.919236     4.980029    -0.350359
H     -4.537616    -4.277269    -5.189988
H     -4.686836    -0.051500    -5.255425
H     -4.247006    -0.746296     0.750615
H     -4.063727     0.732564    -1.204986
H     -3.754109     2.326430    -1.711261
H     -4.325830     4.249970    -4.615255
H     -3.929835     2.298223    -5.405193
H     -4.110695    -5.715115    -4.371897
H     -3.715589     4.317751    -2.688872
H     -4.307965    -4.416377     2.761886
H     -3.759357    -0.741229     3.958975
H     -3.653633     1.072261    -3.486709
H     -3.346389    -4.635039     4.044754
H     -3.197879    -1.287809    -0.392204
H     -3.331288    -5.771668     6.171454
H     -3.038193    -5.384797    -1.168305
H     -2.471967     1.297068     1.059448
H     -2.438694    -3.384427    -1.309188
H     -2.310221     3.824761    -2.275353
H     -2.862548     3.168281     5.242987
